[TITLE]
;;Project Title/Notes

[OPTIONS]
;;Option             Value
FLOW_UNITS           CMS
INFILTRATION         HORTON
FLOW_ROUTING         DYNWAVE
LINK_OFFSETS         DEPTH
MIN_SLOPE            0
ALLOW_PONDING        NO
SKIP_STEADY_STATE    NO

START_DATE           01/01/1977
START_TIME           00:00:00
REPORT_START_DATE    01/01/1977
REPORT_START_TIME    00:00:00
END_DATE             03/31/1977
END_TIME             00:00:00
SWEEP_START          01/01
SWEEP_END            12/31
DRY_DAYS             0
REPORT_STEP          24:00:00
WET_STEP             00:05:00
DRY_STEP             00:05:00
ROUTING_STEP         0:00:30 

INERTIAL_DAMPING     PARTIAL
NORMAL_FLOW_LIMITED  BOTH
FORCE_MAIN_EQUATION  H-W
VARIABLE_STEP        0.75
LENGTHENING_STEP     0
MIN_SURFAREA         1.14
MAX_TRIALS           8
HEAD_TOLERANCE       0.0015
SYS_FLOW_TOL         5
LAT_FLOW_TOL         5
MINIMUM_STEP         0.5
THREADS              12

[EVAPORATION]
;;Data Source    Parameters
;;-------------- ----------------
CONSTANT         0.0
DRY_ONLY         NO

[JUNCTIONS]
;;Name           Elevation  MaxDepth   InitDepth  SurDepth   Aponded   
;;-------------- ---------- ---------- ---------- ---------- ----------
W1               247.77     0          0          0          0         
W2               244.79     0          0          0          0         
W3               243.22     0          0          0          0         
W4               232.70     0          0          0          0         
W5               230.84     0          0          0          0         
W6               230.48     0          0          0          0         
W7               224.44     0          0          0          0         
W8               215.72     0          0          0          0         
W9               207.18     0          0          0          0         
W10              205.06     0          0          0          0         
W11              194.92     0          0          0          0         
W12              162.97     0          0          0          0         
W13              157.02     0          0          0          0         
W14              144.04     0          0          0          0         
W15              137.02     0          0          0          0         
GL1              188.403    0          0          0          0         
GL2              187.829    0          0          0          0         
GL3              184.503    0          0          0          0         
GL4              187.628    0          0          0          0         
GL5              182.123    0          0          0          0         
GL6              185.440    0          0          0          0         
GL7              174.019    0          0          0          0         
GL7+1            179.416    0          0          0          0         
GL8              182.947    0          0          0          0         
GL9              181.890    0          0          0          0         
GL10             182.681    0          0          0          0         
GL11             179.963    0          0          0          0         
GL12             181.421    0          0          0          0         
GL13             179.330    0          0          0          0         
GL14             178.5      0          0          0          0         
GL15             179.049    0          0          0          0         
GL16             178.185    0          0          0          0         
GL17             177.567    0          0          0          0         
GL18             176.896    0          0          0          0         
GL19             175.079    0          0          0          0         
GL20             174.255    0          0          0          0         
GL21             174.555    0          0          0          0         
GL22             175.885    0          0          0          0         
GL23             175.023    0          0          0          0         
GL24             173.459    0          0          0          0         
GL25             176.370    0          0          0          0         
GL26             176.246    0          0          0          0         
GL27             174.511    0          0          0          0         
GL28             175.678    0          0          0          0         
GL29             173.386    0          0          0          0         
GL30             173.712    0          0          0          0         
GL31             174.309    0          0          0          0         
GL32             172.86     0          0          0          0         
GL33             172.733    0          0          0          0         
GL34             171.683    0          0          0          0         
GL35             171.028    0          0          0          0         
GL36             170.088    0          0          0          0         
CS01             310        0          0          0          0         

[OUTFALLS]
;;Name           Elevation  Type       Stage Data       Gated    Route To        
;;-------------- ---------- ---------- ---------------- -------- ----------------
W16              135.47     FIXED      137              NO                       

[CONDUITS]
;;Name           From Node        To Node          Length     Roughness  InOffset   OutOffset  InitFlow   MaxFlow   
;;-------------- ---------------- ---------------- ---------- ---------- ---------- ---------- ---------- ----------
W1               CS01             W1               2000       0.01       0          0          0          0         
W2               W1               W2               1030       0.01       0          0          0          0         
W3               W2               W3               690        0.01       0          0          0          0         
W4               W3               W4               3350       0.01       0          0          0          0         
W5               W4               W5               550        0.01       0          0          0          0         
W6               W5               W6               320        0.01       0          0          0          0         
W7               W6               W7               2390       0.01       0          0          0          0         
W8               W7               W8               3880       0.01       0          0          0          0         
W9               W8               W9               3010       0.01       0          0          0          0         
W10              W9               W10              580        0.01       0          0          0          0         
W11              W10              W11              5020       0.01       0          0          0          0         
GL1              W11              GL1              3240       0.01       0          0          0          0         
GL2              GL1              GL2              50         0.01       0          0          0          0         
GL3              GL2              GL3              280        0.01       0          0          0          0         
GL4              GL3              GL4              240        0.01       0          0          0          0         
GL5              GL4              GL5              520        0.01       0          0          0          0         
GL6              GL5              GL6              130        0.01       0          0          0          0         
GL7              GL6              GL7              280        0.01       0          0          0          0         
GL7+1            GL7              GL7+1            420        0.01       0          0          0          0         
GL8              GL7+1            GL8              130        0.01       0          0          0          0         
GL9              GL8              GL9              210        0.01       0          0          0          0         
GL10             GL9              GL10             400        0.01       0          0          0          0         
GL11             GL10             GL11             110        0.01       0          0          0          0         
GL12             GL11             GL12             170        0.01       0          0          0          0         
GL13             GL12             GL13             210        0.01       0          0          0          0         
GL14             GL13             GL14             80         0.01       0          0          0          0         
GL15             GL14             GL15             350        0.01       0          0          0          0         
GL16             GL15             GL16             530        0.01       0          0          0          0         
GL17             GL16             GL17             170        0.01       0          0          0          0         
GL18             GL17             GL18             60         0.01       0          0          0          0         
GL19             GL18             GL19             80         0.01       0          0          0          0         
GL20             GL19             GL20             130        0.01       0          0          0          0         
GL21             GL20             GL21             100        0.01       0          0          0          0         
GL22             GL21             GL22             350        0.01       0          0          0          0         
GL23             GL22             GL23             210        0.01       0          0          0          0         
GL24             GL23             GL24             460        0.01       0          0          0          0         
GL25             GL24             GL25             240        0.01       0          0          0          0         
GL26             GL25             GL26             590        0.01       0          0          0          0         
GL27             GL26             GL27             530        0.01       0          0          0          0         
GL28             GL27             GL28             1000       0.01       0          0          0          0         
GL29             GL28             GL29             360        0.01       0          0          0          0         
GL30             GL29             GL30             50         0.01       0          0          0          0         
GL31             GL30             GL31             120        0.01       0          0          0          0         
GL32             GL31             GL32             440        0.01       0          0          0          0         
GL33             GL32             GL33             130        0.01       0          0          0          0         
GL34             GL33             GL34             300        0.01       0          0          0          0         
GL35             GL34             GL35             410        0.01       0          0          0          0         
GL36             GL35             GL36             650        0.01       0          0          0          0         
W12              GL36             W12              195        0.01       0          0          0          0         
W13              W12              W13              4940       0.01       0          0          0          0         
W14              W13              W14              9550       0.01       0          0          0          0         
W15              W14              W15              7690       0.01       0          0          0          0         
W16              W15              W16              5620       0.01       0          0          0          0         

[XSECTIONS]
;;Link           Shape        Geom1            Geom2      Geom3      Geom4      Barrels    Culvert   
;;-------------- ------------ ---------------- ---------- ---------- ---------- ---------- ----------
W1               IRREGULAR    W1               0          0          0          1                    
W2               IRREGULAR    W2               0          0          0          1                    
W3               IRREGULAR    W3               0          0          0          1                    
W4               IRREGULAR    W4               0          0          0          1                    
W5               IRREGULAR    W5               0          0          0          1                    
W6               IRREGULAR    W6               0          0          0          1                    
W7               IRREGULAR    W7               0          0          0          1                    
W8               IRREGULAR    W8               0          0          0          1                    
W9               IRREGULAR    W9               0          0          0          1                    
W10              IRREGULAR    W10              0          0          0          1                    
W11              IRREGULAR    W11              0          0          0          1                    
GL1              IRREGULAR    GL1              0          0          0          1                    
GL2              IRREGULAR    GL2              0          0          0          1                    
GL3              IRREGULAR    GL3              0          0          0          1                    
GL4              IRREGULAR    GL4              0          0          0          1                    
GL5              IRREGULAR    GL5              0          0          0          1                    
GL6              IRREGULAR    GL6              0          0          0          1                    
GL7              IRREGULAR    GL7              0          0          0          1                    
GL7+1            IRREGULAR    GL7+1            0          0          0          1                    
GL8              IRREGULAR    GL8              0          0          0          1                    
GL9              IRREGULAR    GL9              0          0          0          1                    
GL10             IRREGULAR    GL10             0          0          0          1                    
GL11             IRREGULAR    GL11             0          0          0          1                    
GL12             IRREGULAR    GL12             0          0          0          1                    
GL13             IRREGULAR    GL13             0          0          0          1                    
GL14             IRREGULAR    GL14             0          0          0          1                    
GL15             IRREGULAR    GL15             0          0          0          1                    
GL16             IRREGULAR    GL16             0          0          0          1                    
GL17             IRREGULAR    GL17             0          0          0          1                    
GL18             IRREGULAR    GL18             0          0          0          1                    
GL19             IRREGULAR    GL19             0          0          0          1                    
GL20             IRREGULAR    GL20             0          0          0          1                    
GL21             IRREGULAR    GL21             0          0          0          1                    
GL22             IRREGULAR    GL22             0          0          0          1                    
GL23             IRREGULAR    GL23             0          0          0          1                    
GL24             IRREGULAR    GL24             0          0          0          1                    
GL25             IRREGULAR    GL25             0          0          0          1                    
GL26             IRREGULAR    GL26             0          0          0          1                    
GL27             IRREGULAR    GL27             0          0          0          1                    
GL28             IRREGULAR    GL28             0          0          0          1                    
GL29             IRREGULAR    GL29             0          0          0          1                    
GL30             IRREGULAR    GL30             0          0          0          1                    
GL31             IRREGULAR    GL31             0          0          0          1                    
GL32             IRREGULAR    GL32             0          0          0          1                    
GL33             IRREGULAR    GL33             0          0          0          1                    
GL34             IRREGULAR    GL34             0          0          0          1                    
GL35             IRREGULAR    GL35             0          0          0          1                    
GL36             IRREGULAR    GL36             0          0          0          1                    
W12              IRREGULAR    W12              0          0          0          1                    
W13              IRREGULAR    W13              0          0          0          1                    
W14              IRREGULAR    W14              0          0          0          1                    
W15              IRREGULAR    W15              0          0          0          1                    
W16              IRREGULAR    W16              0          0          0          1                    

[TRANSECTS]
;;Transect Data in HEC-2 format
;
NC 0.01     0.01     0.01    
X1 CS01              45       0.0      0.0      0.0      0.0      0.0      0.0      0.0     
GR 363.8    0        359.3    11.0     358.1    26.7     351.8    48.0     351.6    58.2    
GR 347.1    63.4     347.1    72.3     336.0    93.7     321.2    110.2    315.8    117.8   
GR 304.8    130.7    295.3    142.7    281.9    152.5    272.7    161.5    270.3    161.6   
GR 266.8    163.6    263.5    169.7    258.4    176.4    258.4    181.9    254.0    187.6   
GR 251.6    195.2    252.8    204.7    253.3    211.0    254.0    221.0    255.5    237.6   
GR 255.6    248.9    258.4    250.3    259.5    257.4    259.2    270.4    262.6    275.0   
GR 262.5    286.3    265.1    289.9    265.2    304.0    271.0    317.9    281.0    332.4   
GR 295.7    357.3    303.7    364.3    315.0    378.3    321.2    386.2    332.1    391.7   
GR 341.0    406.0    348.7    416.9    355.4    426.6    360.1    434.2    362.7    440.3   
;
NC 0.01     0.01     0.01    
X1 CS02              48       0.0      0.0      0.0      0.0      0.0      0.0      0.0     
GR 371.9    0        343.6    21.2     315.9    42.4     321.3    56.7     327.9    73.4    
GR 329.1    92.6     324.5    105.3    320.8    120.4    317.9    129.4    309.0    155.3   
GR 301.7    170.7    294.0    176.8    294.0    182.4    288.9    191.3    285.6    194.6   
GR 285.8    199.8    281.4    206.3    281.6    211.6    265.3    220.2    265.4    225.3   
GR 256.4    241.2    254.8    249.4    255.5    260.3    256.4    270.0    258.4    280.5   
GR 259.5    297.3    259.5    310.8    261.6    312.4    262.6    320.7    262.6    339.8   
GR 262.8    360.0    263.1    385.8    263.4    436.9    263.2    441.3    268.8    445.1   
GR 269.9    452.7    285.5    475.1    294.4    494.8    301.9    505.0    303.2    509.2   
GR 310.3    528.7    316.4    550.4    317.4    573.3    319.2    598.3    332.4    630.4   
GR 341.2    644.7    352.4    658.2    360.3    675.2   
;
NC 0.01     0.01     0.01    
X1 CS03              42       0.0      0.0      0.0      0.0      0.0      0.0      0.0     
GR 362.3    0        357.8    4.4      346.0    18.9     338.9    30.0     332.6    39.4    
GR 317.0    44.9     311.2    47.8     296.9    53.9     277.3    63.7     264.0    82.6    
GR 263.8    87.8     260.5    90.6     259.1    96.6     259.3    107.5    260.5    112.5   
GR 259.6    116.9    259.8    124.3    260.3    159.4    262.6    163.7    262.6    174.4   
GR 263.4    176.0    263.5    197.2    265.4    198.4    266.1    208.8    265.7    245.7   
GR 266.6    255.5    269.6    258.9    269.7    264.3    272.1    266.7    272.5    282.6   
GR 275.4    285.0    278.7    297.4    279.0    305.8    282.2    313.9    285.7    318.9   
GR 290.2    331.3    297.7    343.9    308.3    365.0    313.9    371.2    332.2    386.4   
GR 348.6    400.8    368.5    422.1   
;
NC 0.01     0.01     0.01    
X1 CS04              35       0.0      0.0      0.0      0.0      0.0      0.0      0.0     
GR 369.0    0        358.8    12.2     339.1    34.4     331.2    51.1     328.4    53.8    
GR 316.8    75.3     310.5    91.7     306.1    96.6     303.6    104.0    298.9    112.7   
GR 289.3    129.3    280.4    144.7    274.6    160.2    272.9    172.9    269.5    205.9   
GR 268.3    215.0    267.9    236.6    268.0    241.5    266.8    254.4    266.3    269.1   
GR 264.3    272.2    263.5    279.4    263.2    292.9    263.1    303.8    262.9    308.3   
GR 260.5    315.3    261.8    323.4    263.5    336.1    290.3    343.9    309.0    355.5   
GR 323.3    366.3    338.4    372.8    349.6    384.9    361.2    397.8    373.3    405.4   
;
NC 0.01     0.01     0.01    
X1 CS05              55       0.0      0.0      0.0      0.0      0.0      0.0      0.0     
GR 374.4    0        346.9    5.5      321.0    11.9     297.7    28.4     270.3    43.7    
GR 269.9    51.7     269.9    56.7     265.0    60.6     263.9    67.1     262.5    74.7    
GR 263.2    79.5     265.0    84.4     267.1    102.9    267.2    114.8    268.1    135.2   
GR 269.1    135.8    269.1    168.8    270.0    169.2    269.9    213.7    271.2    261.4   
GR 271.0    285.7    273.6    289.6    273.9    292.5    277.1    295.1    277.0    309.0   
GR 280.0    311.4    279.8    314.7    282.6    317.8    282.5    325.4    284.9    328.1   
GR 288.0    333.2    287.8    341.4    291.8    344.1    291.7    352.5    296.6    357.3   
GR 296.5    368.7    302.2    374.2    301.9    384.8    305.5    386.9    305.4    394.5   
GR 309.3    396.6    308.8    410.7    317.4    432.5    322.9    445.9    328.9    455.4   
GR 335.2    469.3    335.1    476.9    341.4    482.2    341.2    495.5    347.4    503.1   
GR 347.3    509.7    352.1    513.8    352.1    520.8    358.8    528.5    364.6    540.8   
;
NC 0.01     0.01     0.01    
X1 CS06              32       0.0      0.0      0.0      0.0      0.0      0.0      0.0     
GR 363.3    0        353.3    13.7     341.4    29.1     324.3    55.0     309.7    74.6    
GR 305.5    87.9     292.0    117.7    285.1    157.6    282.5    178.8    281.6    195.6   
GR 278.5    212.4    278.7    225.6    279.0    231.1    277.2    239.1    277.1    252.6   
GR 275.7    253.3    275.9    262.7    273.5    265.3    270.6    282.5    270.7    311.9   
GR 269.5    312.8    270.4    327.1    268.0    333.7    266.6    358.6    265.9    365.3   
GR 264.6    375.3    266.5    384.3    300.7    392.8    323.2    410.7    331.4    425.1   
GR 358.7    483.4    380.9    513.5   
;
NC 0.01     0.01     0.01    
X1 CS07              66       0.0      0.0      0.0      0.0      0.0      0.0      0.0     
GR 365.01   0        358.9    4.8      359.1    7.9      355.3    11.0     346.7    25.8    
GR 338.8    38.0     334.1    50.1     328.5    55.5     326.6    59.8     324.3    62.1    
GR 323.0    72.8     316.4    77.0     322.0    91.4     323.0    97.3     321.3    101.6   
GR 318.7    103.9    318.5    111.9    314.8    115.7    314.9    121.6    312.3    122.7   
GR 312.2    131.7    306.6    136.2    306.9    148.2    300.8    154.3    301.2    163.2   
GR 297.8    167.0    296.5    171.4    295.3    176.9    293.4    177.7    293.6    183.5   
GR 291.4    184.3    291.4    190.1    289.3    191.9    289.3    197.3    286.7    199.0   
GR 287.0    212.8    283.2    227.3    280.8    239.9    274.8    243.2    275.2    248.2   
GR 274.6    253.4    269.4    256.5    267.2    261.4    266.8    267.6    268.7    276.5   
GR 269.4    282.4    269.6    291.1    270.7    293.1    271.8    308.1    272.9    315.8   
GR 272.8    323.0    274.9    324.2    274.7    359.0    274.7    384.6    276.6    389.9   
GR 279.6    398.0    281.9    413.0    287.1    434.1    289.5    438.6    300.1    456.3   
GR 309.6    467.5    323.1    488.4    336.5    509.0    358.8    526.3    370.6    535.6   
GR 388.6    551.4   
;
NC 0.01     0.01     0.01    
X1 CS08              65       0.0      0.0      0.0      0.0      0.0      0.0      0.0     
GR 369.7    0        349.1    24.4     341.0    37.3     328.3    49.2     321.9    57.3    
GR 315.4    81.1     316.0    96.9     313.9    98.8     312.2    106.6    308.0    109.1   
GR 308.0    116.9    301.8    123.6    301.9    130.0    298.9    131.5    298.8    133.8   
GR 296.1    136.2    295.5    145.9    293.0    149.6    291.7    154.0    288.9    157.1   
GR 289.2    188.8    286.3    191.4    286.3    207.6    285.1    209.4    285.7    276.1   
GR 288.7    279.7    289.7    289.1    289.6    314.5    291.2    325.2    291.3    334.5   
GR 290.1    337.1    288.5    356.1    283.9    362.6    284.1    369.5    279.4    376.7   
GR 273.0    384.6    273.6    391.9    271.0    394.1    269.7    398.6    269.2    405.4   
GR 271.0    422.8    271.0    433.5    271.0    448.6    272.4    453.7    274.4    472.9   
GR 278.6    481.0    277.2    503.6    277.8    517.9    278.0    548.4    279.7    575.1   
GR 281.1    589.8    284.4    612.1    286.0    619.5    288.6    622.9    288.4    631.1   
GR 289.9    632.1    290.4    640.3    295.8    649.0    300.4    670.2    305.8    688.8   
GR 315.5    705.3    329.2    718.6    342.1    729.7    356.0    739.7    372.4    769.2   
;
NC 0.01     0.01     0.01    
X1 CS09              38       0.0      0.0      0.0      0.0      0.0      0.0      0.0     
GR 366.0    0        354.4    3.7      342.9    14.0     307.0    62.2     298.4    77.8    
GR 285.8    87.8     280.4    95.4     278.8    97.6     278.5    102.0    274.5    106.4   
GR 274.8    143.4    274.9    166.0    275.0    171.8    274.2    173.8    275.0    195.9   
GR 274.0    198.3    274.1    229.5    273.4    253.5    273.4    254.8    275.1    266.5   
GR 272.9    277.9    272.1    290.0    272.3    294.1    272.3    303.1    272.9    309.7   
GR 273.4    334.9    273.3    359.0    273.4    378.3    272.2    381.3    272.1    384.3   
GR 270.6    392.3    270.3    401.3    272.1    403.0    274.3    423.0    325.5    446.9   
GR 340.5    456.8    356.4    472.8    366.8    480.7   
;
NC 0.01     0.01     0.01    
X1 CS10              38       0.0      0.0      0.0      0.0      0.0      0.0      0.0     
GR 367.7    0        353.8    20.2     338.8    35.0     330.7    50.4     315.9    72.7    
GR 297.0    74.3     278.4    87.1     278.5    92.4     272.8    98.9     272.0    105.7   
GR 272.0    108.4    272.8    115.1    272.9    132.6    274.6    148.2    274.8    157.2   
GR 276.7    159.1    276.8    165.3    278.5    166.3    278.5    192.3    279.5    214.7   
GR 281.2    222.1    285.6    242.8    285.6    249.7    289.9    253.4    290.2    260.3   
GR 292.7    267.4    294.8    278.9    301.1    287.8    303.9    301.3    307.5    305.2   
GR 309.9    323.6    317.8    338.9    319.8    345.9    324.5    352.5    329.2    365.4   
GR 342.0    387.4    359.6    411.2    377.2    432.1   
;
NC 0.01     0.01     0.01    
X1 CS11              46       0.0      0.0      0.0      0.0      0.0      0.0      0.0     
GR 368.1    0        354.1    6.4      334.5    34.7     321.0    58.9     313.6    70.5    
GR 302.2    84.4     295.0    104.0    292.2    117.8    286.6    139.5    286.6    146.4   
GR 284.2    153.5    284.1    160.9    282.4    167.8    282.4    173.7    280.0    185.3   
GR 280.0    191.5    278.7    196.0    277.0    199.6    277.2    224.4    276.5    252.8   
GR 275.9    278.5    274.5    280.3    273.1    290.1    272.9    298.1    272.5    317.1   
GR 274.5    329.3    277.0    330.5    275.4    337.7    282.3    343.9    286.4    361.9   
GR 286.3    371.4    288.1    373.2    291.3    387.7    293.2    402.7    294.5    412.9   
GR 295.7    418.9    300.0    431.9    304.1    442.4    304.1    448.5    307.8    452.6   
GR 310.9    460.2    321.8    478.0    334.8    505.1    354.1    523.0    359.1    529.6   
GR 375.4    554.5   
;
NC 0.01     0.01     0.01    
X1 CS12              28       0.0      0.0      0.0      0.0      0.0      0.0      0.0     
GR 368.8    0        347.4    17.4     331.5    34.5     320.4    51.5     307.4    71.4    
GR 297.9    90.9     291.1    102.2    285.5    108.4    285.8    114.1    285.4    118.1   
GR 275.3    133.1    273.2    138.8    272.6    145.7    275.3    157.4    275.9    168.3   
GR 277.9    178.1    277.6    201.8    279.7    204.7    279.6    232.9    279.6    240.7   
GR 283.4    245.6    290.3    255.1    306.1    280.3    325.0    301.4    333.8    320.5   
GR 351.1    352.9    362.0    368.8    375.9    391.6   
;
NC 0.01     0.01     0.01    
X1 CS13              32       0.0      0.0      0.0      0.0      0.0      0.0      0.0     
GR 365.3    0        357.4    12.1     344.9    28.7     336.2    39.9     323.5    54.4    
GR 317.4    64.5     313.6    72.2     306.9    81.8     298.6    96.1     294.0    107.9   
GR 288.7    117.5    288.5    121.5    285.8    125.8    285.8    136.5    285.4    146.2   
GR 286.1    154.4    283.9    163.4    282.9    177.9    282.9    183.3    280.5    187.2   
GR 281.9    199.1    277.9    217.3    275.3    227.3    276.8    233.2    277.9    239.1   
GR 280.8    244.4    294.8    257.1    300.3    265.0    310.0    276.7    334.3    284.9   